Amphetamine
LatticeLab

 23 23  0  0  0  0  0  0  0  0  1 V2000
    0.0000    1.3960    0.0000 C   0  0  0  0  0  0  0  0  0  0  0  0
   -1.2098    0.6980    0.0000 C   0  0  0  0  0  0  0  0  0  0  0  0
   -1.2098   -0.6980    0.0000 C   0  0  0  0  0  0  0  0  0  0  0  0
    0.0000   -1.3960    0.0000 C   0  0  0  0  0  0  0  0  0  0  0  0
    1.2098   -0.6980    0.0000 C   0  0  0  0  0  0  0  0  0  0  0  0
    1.2098    0.6980    0.0000 C   0  0  0  0  0  0  0  0  0  0  0  0
    2.5000    1.3960    0.0000 C   0  0  0  0  0  0  0  0  0  0  0  0
    3.8000    1.3960    0.0000 C   0  0  0  0  0  0  0  0  0  0  0  0
    5.0000    2.0000    0.0000 C   0  0  0  0  0  0  0  0  0  0  0  0
    6.2000    2.0000    0.0000 C   0  0  0  0  0  0  0  0  0  0  0  0
    5.0000    3.2000    0.0000 N   0  0  0  0  0  0  0  0  0  0  0  0
    0.0000    2.4800    0.0000 H   0  0  0  0  0  0  0  0  0  0  0  0
   -2.1470    1.2400    0.0000 H   0  0  0  0  0  0  0  0  0  0  0  0
   -2.1470   -1.2400    0.0000 H   0  0  0  0  0  0  0  0  0  0  0  0
    0.0000   -2.4800    0.0000 H   0  0  0  0  0  0  0  0  0  0  0  0
    2.1480   -1.2400    0.0000 H   0  0  0  0  0  0  0  0  0  0  0  0
    2.1480    1.2400    0.0000 H   0  0  0  0  0  0  0  0  0  0  0  0
    2.5000    0.3000    0.0000 H   0  0  0  0  0  0  0  0  0  0  0  0
    3.8000    0.3000    0.0000 H   0  0  0  0  0  0  0  0  0  0  0  0
    3.8000    2.4000    0.0000 H   0  0  0  0  0  0  0  0  0  0  0  0
    5.0000    0.9000    0.0000 H   0  0  0  0  0  0  0  0  0  0  0  0
    6.2000    3.0000    0.0000 H   0  0  0  0  0  0  0  0  0  0  0  0
    6.2000    1.0000    0.0000 H   0  0  0  0  0  0  0  0  0  0  0  0
    5.0000    4.2000    0.0000 H   0  0  0  0  0  0  0  0  0  0  0  0
  1  2  2  0  0  0  0
  2  3  1  0  0  0  0
  3  4  2  0  0  0  0
  4  5  1  0  0  0  0
  5  6  2  0  0  0  0
  6  1  1  0  0  0  0
  6  7  1  0  0  0  0
  7  8  1  0  0  0  0
  8  9  1  0  0  0  0
  9 10  1  0  0  0  0
  9 11  1  0  0  0  0
  1 12  1  0  0  0  0
  2 13  1  0  0  0  0
  3 14  1  0  0  0  0
  4 15  1  0  0  0  0
  5 16  1  0  0  0  0
  7 17  1  0  0  0  0
  8 18  1  0  0  0  0
  8 19  1  0  0  0  0
 10 20  1  0  0  0  0
 10 21  1  0  0  0  0
 10 22  1  0  0  0  0
 11 23  1  0  0  0  0

M  END